# created with PyMOL 2.4.1
@<TRIPOS>MOLECULE
4WI.H
68 70 1                 
SMALL
USER_CHARGES
@<TRIPOS>ATOM
1	  C1	-10.805	42.119	-18.225	C.2	1	4WI501	0.000	
2	  N1	-11.481	42.512	-17.117	N.pl3	1	4WI501	0.000	
3	  O1	-14.448	39.866	-14.201	O.2	1	4WI501	0.000	
4	  C2	-12.892	42.961	-17.024	C.3	1	4WI501	0.000	
5	  N2	-15.672	39.147	-16.019	N.pl3	1	4WI501	0.000	
6	  O2	-11.357	42.136	-19.343	O.2	1	4WI501	0.000	
7	  C3	-12.845	44.433	-16.617	C.2	1	4WI501	0.000	
8	  N3	-9.138	40.346	-18.771	N.pl3	1	4WI501	0.000	
9	  O3	-10.625	39.293	-17.418	O.2	1	4WI501	0.000	
10	  C4	-13.714	42.105	-16.041	C.3	1	4WI501	0.000	
11	  N4	-8.949	37.008	-18.330	N.pl3	1	4WI501	0.000	
12	  O4	-6.905	37.187	-19.365	O.2	1	4WI501	0.000	
13	  C5	-13.948	40.659	-16.489	C.3	1	4WI501	0.000	
14	  N5	-13.612	45.276	-17.198	N.2	1	4WI501	0.000	
15	  C6	-14.773	40.408	-17.772	C.3	1	4WI501	0.000	
16	  C7	-15.566	39.120	-17.478	C.3	1	4WI501	0.000	
17	  C8	-14.699	39.863	-15.415	C.2	1	4WI501	0.000	
18	  C9	-9.362	41.625	-18.065	C.3	1	4WI501	0.000	
19	 C10	-8.020	40.395	-19.742	C.3	1	4WI501	0.000	
20	 C11	-7.594	41.848	-19.773	C.3	1	4WI501	0.000	
21	 C12	-8.409	42.613	-18.746	C.3	1	4WI501	0.000	
22	 C13	-9.855	39.265	-18.395	C.2	1	4WI501	0.000	
23	 C14	-9.653	37.955	-19.194	C.3	1	4WI501	0.000	
24	 C15	-10.970	37.345	-19.790	C.3	1	4WI501	0.000	
25	 C16	-11.728	38.461	-20.534	C.3	1	4WI501	0.000	
26	 C17	-11.892	36.725	-18.720	C.3	1	4WI501	0.000	
27	 C18	-6.905	42.456	-18.565	C.3	1	4WI501	0.000	
28	 C19	-6.087	43.705	-18.850	C.3	1	4WI501	0.000	
29	 C20	-6.311	41.601	-17.458	C.3	1	4WI501	0.000	
30	 C21	-7.646	36.748	-18.482	C.2	1	4WI501	0.000	
31	 C22	-7.042	35.796	-17.428	C.3	1	4WI501	0.000	
32	 C23	-10.572	36.254	-20.805	C.3	1	4WI501	0.000	
33	  F1	-7.467	34.521	-17.558	 F	1	4WI501	0.000	
34	  F2	-5.698	35.798	-17.524	 F	1	4WI501	0.000	
35	  F3	-7.369	36.219	-16.196	 F	1	4WI501	0.000	
36	 NH2	-16.398	38.679	-15.515	 H	1	4WI501	0.000	
37	 NH5	-13.899	44.910	-18.083	 H	1	4WI501	0.000	
38	  H1	-10.967	42.497	-16.260	 H	1	4WI501	0.000	
39	  H2	-13.392	42.844	-17.963	 H	1	4WI501	0.000	
40	 1H4	-13.123	42.039	-15.152	 H	1	4WI501	0.000	
41	 2H4	-14.683	42.557	-16.006	 H	1	4WI501	0.000	
42	  H4	-9.456	36.542	-17.605	 H	1	4WI501	0.000	
43	  H5	-12.940	40.355	-16.678	 H	1	4WI501	0.000	
44	 1H6	-15.475	41.209	-17.871	 H	1	4WI501	0.000	
45	 2H6	-14.087	40.196	-18.566	 H	1	4WI501	0.000	
46	 1H7	-14.961	38.282	-17.755	 H	1	4WI501	0.000	
47	 2H7	-16.548	39.229	-17.888	 H	1	4WI501	0.000	
48	  H9	-9.191	41.521	-17.014	 H	1	4WI501	0.000	
49	1H10	-7.210	39.826	-19.335	 H	1	4WI501	0.000	
50	2H10	-8.415	40.150	-20.706	 H	1	4WI501	0.000	
51	 H11	-7.341	41.886	-20.812	 H	1	4WI501	0.000	
52	 H12	-9.033	43.479	-18.668	 H	1	4WI501	0.000	
53	 H14	-9.070	38.182	-20.062	 H	1	4WI501	0.000	
54	1H16	-12.717	38.547	-20.136	 H	1	4WI501	0.000	
55	2H16	-11.211	39.389	-20.407	 H	1	4WI501	0.000	
56	3H16	-11.782	38.222	-21.576	 H	1	4WI501	0.000	
57	1H17	-11.367	35.950	-18.202	 H	1	4WI501	0.000	
58	2H17	-12.189	37.481	-18.023	 H	1	4WI501	0.000	
59	3H17	-12.760	36.314	-19.192	 H	1	4WI501	0.000	
60	1H19	-5.644	44.056	-17.942	 H	1	4WI501	0.000	
61	2H19	-6.724	44.464	-19.253	 H	1	4WI501	0.000	
62	3H19	-5.317	43.474	-19.556	 H	1	4WI501	0.000	
63	1H20	-5.878	42.234	-16.712	 H	1	4WI501	0.000	
64	2H20	-7.081	41.004	-17.016	 H	1	4WI501	0.000	
65	3H20	-5.555	40.963	-17.867	 H	1	4WI501	0.000	
66	1H23	-10.044	35.472	-20.300	 H	1	4WI501	0.000	
67	2H23	-11.453	35.853	-21.261	 H	1	4WI501	0.000	
68	3H23	-9.943	36.680	-21.558	 H	1	4WI501	0.000	
@<TRIPOS>BOND
1 1 2 1
2 1 6 2
3 1 18 1
4 2 4 1
5 2 38 1
6 3 17 2
7 4 7 1
8 4 10 1
9 4 39 1
10 5 16 1
11 5 17 1
12 5 36 1
13 7 14 2
14 8 18 1
15 8 19 1
16 8 22 1
17 9 22 2
18 10 13 1
19 10 40 1
20 10 41 1
21 11 23 1
22 11 30 1
23 11 42 1
24 12 30 2
25 13 15 1
26 13 17 1
27 13 43 1
28 14 37 1
29 15 16 1
30 15 44 1
31 15 45 1
32 16 46 1
33 16 47 1
34 18 21 1
35 18 48 1
36 19 20 1
37 19 49 1
38 19 50 1
39 20 21 1
40 20 27 1
41 20 51 1
42 21 27 1
43 21 52 1
44 22 23 1
45 23 24 1
46 23 53 1
47 24 25 1
48 24 26 1
49 24 32 1
50 25 54 1
51 25 55 1
52 25 56 1
53 26 57 1
54 26 58 1
55 26 59 1
56 27 28 1
57 27 29 1
58 28 60 1
59 28 61 1
60 28 62 1
61 29 63 1
62 29 64 1
63 29 65 1
64 30 31 1
65 31 33 1
66 31 34 1
67 31 35 1
68 32 66 1
69 32 67 1
70 32 68 1
@<TRIPOS>SUBSTRUCTURE
1	4WI501	1	GROUP	1 A	4WI
